packages/py-dss-toolkit/py_dss_toolkit-0.4.0.tar.gz/py_dss_toolkit-0.4.0/examples/feeders/1_ALPE_1/002_condutores.dss
New Linecode.1_1 nphases=1 basefreq=60 r1=1.3526 x1=0.4537 units=km normamps=163.8
New Linecode.1_2 nphases=2 basefreq=60 r1=1.3526 x1=0.4537 units=km normamps=163.8
New Linecode.1_3 nphases=3 basefreq=60 r1=1.3526 x1=0.4537 units=km normamps=163.8
New Linecode.1_4 nphases=4 basefreq=60 r1=1.3526 x1=0.4537 units=km normamps=163.8
New Linecode.1_P_1 nphases=1 basefreq=60 r1=1.3526 x1=0.4537 units=km normamps=163.8
New Linecode.1_P_2 nphases=2 basefreq=60 r1=1.3526 x1=0.4537 units=km normamps=163.8
New Linecode.1_P_3 nphases=3 basefreq=60 r1=1.3526 x1=0.4537 units=km normamps=163.8
New Linecode.1_P_4 nphases=4 basefreq=60 r1=1.3526 x1=0.4537 units=km normamps=163.8
New Linecode.10_1 nphases=1 basefreq=60 r1=1.3526 x1=0.4537 units=km normamps=163.8
New Linecode.10_2 nphases=2 basefreq=60 r1=1.3526 x1=0.4537 units=km normamps=163.8
New Linecode.10_3 nphases=3 basefreq=60 r1=1.3526 x1=0.4537 units=km normamps=163.8
New Linecode.10_4 nphases=4 basefreq=60 r1=1.3526 x1=0.4537 units=km normamps=163.8
New Linecode.10_P_1 nphases=1 basefreq=60 r1=1.3526 x1=0.4537 units=km normamps=163.8
New Linecode.10_P_2 nphases=2 basefreq=60 r1=1.3526 x1=0.4537 units=km normamps=163.8
New Linecode.10_P_3 nphases=3 basefreq=60 r1=1.3526 x1=0.4537 units=km normamps=163.8
New Linecode.10_P_4 nphases=4 basefreq=60 r1=1.3526 x1=0.4537 units=km normamps=163.8
New Linecode.101_1 nphases=1 basefreq=60 r1=1.2 x1=0.1004 units=km normamps=101.85
New Linecode.101_2 nphases=2 basefreq=60 r1=1.2 x1=0.1004 units=km normamps=101.85
New Linecode.101_3 nphases=3 basefreq=60 r1=1.2 x1=0.1004 units=km normamps=101.85
New Linecode.101_4 nphases=4 basefreq=60 r1=1.2 x1=0.1004 units=km normamps=101.85
New Linecode.101_P_1 nphases=1 basefreq=60 r1=1.2 x1=0.1004 units=km normamps=101.85
New Linecode.101_P_2 nphases=2 basefreq=60 r1=1.2 x1=0.1004 units=km normamps=101.85
New Linecode.101_P_3 nphases=3 basefreq=60 r1=1.2 x1=0.1004 units=km normamps=101.85
New Linecode.101_P_4 nphases=4 basefreq=60 r1=1.2 x1=0.1004 units=km normamps=101.85
New Linecode.102_1 nphases=1 basefreq=60 r1=0.868 x1=0.0995 units=km normamps=124.95
New Linecode.102_2 nphases=2 basefreq=60 r1=0.868 x1=0.0995 units=km normamps=124.95
New Linecode.102_3 nphases=3 basefreq=60 r1=0.868 x1=0.0995 units=km normamps=124.95
New Linecode.102_4 nphases=4 basefreq=60 r1=0.868 x1=0.0995 units=km normamps=124.95
New Linecode.102_P_1 nphases=1 basefreq=60 r1=0.868 x1=0.0995 units=km normamps=124.95
New Linecode.102_P_2 nphases=2 basefreq=60 r1=0.868 x1=0.0995 units=km normamps=124.95
New Linecode.102_P_3 nphases=3 basefreq=60 r1=0.868 x1=0.0995 units=km normamps=124.95
New Linecode.102_P_4 nphases=4 basefreq=60 r1=0.868 x1=0.0995 units=km normamps=124.95
New Linecode.104_1 nphases=1 basefreq=60 r1=1.91 x1=0.1022 units=km normamps=76.65
New Linecode.104_2 nphases=2 basefreq=60 r1=1.91 x1=0.1022 units=km normamps=76.65
New Linecode.104_3 nphases=3 basefreq=60 r1=1.91 x1=0.1022 units=km normamps=76.65
New Linecode.104_4 nphases=4 basefreq=60 r1=1.91 x1=0.1022 units=km normamps=76.65
New Linecode.104_P_1 nphases=1 basefreq=60 r1=1.91 x1=0.1022 units=km normamps=76.65
New Linecode.104_P_2 nphases=2 basefreq=60 r1=1.91 x1=0.1022 units=km normamps=76.65
New Linecode.104_P_3 nphases=3 basefreq=60 r1=1.91 x1=0.1022 units=km normamps=76.65
New Linecode.104_P_4 nphases=4 basefreq=60 r1=1.91 x1=0.1022 units=km normamps=76.65
New Linecode.105_1 nphases=1 basefreq=60 r1=1.91 x1=0.1022 units=km normamps=61.95
New Linecode.105_2 nphases=2 basefreq=60 r1=1.91 x1=0.1022 units=km normamps=61.95
New Linecode.105_3 nphases=3 basefreq=60 r1=1.91 x1=0.1022 units=km normamps=61.95
New Linecode.105_4 nphases=4 basefreq=60 r1=1.91 x1=0.1022 units=km normamps=61.95
New Linecode.105_P_1 nphases=1 basefreq=60 r1=1.91 x1=0.1022 units=km normamps=61.95
New Linecode.105_P_2 nphases=2 basefreq=60 r1=1.91 x1=0.1022 units=km normamps=61.95
New Linecode.105_P_3 nphases=3 basefreq=60 r1=1.91 x1=0.1022 units=km normamps=61.95
New Linecode.105_P_4 nphases=4 basefreq=60 r1=1.91 x1=0.1022 units=km normamps=61.95
New Linecode.107_1 nphases=1 basefreq=60 r1=3.08 x1=0.1062 units=km normamps=68.25
New Linecode.107_2 nphases=2 basefreq=60 r1=3.08 x1=0.1062 units=km normamps=68.25
New Linecode.107_3 nphases=3 basefreq=60 r1=3.08 x1=0.1062 units=km normamps=68.25
New Linecode.107_4 nphases=4 basefreq=60 r1=3.08 x1=0.1062 units=km normamps=68.25
New Linecode.107_P_1 nphases=1 basefreq=60 r1=3.08 x1=0.1062 units=km normamps=68.25
New Linecode.107_P_2 nphases=2 basefreq=60 r1=3.08 x1=0.1062 units=km normamps=68.25
New Linecode.107_P_3 nphases=3 basefreq=60 r1=3.08 x1=0.1062 units=km normamps=68.25
New Linecode.107_P_4 nphases=4 basefreq=60 r1=3.08 x1=0.1062 units=km normamps=68.25
New Linecode.108_1 nphases=1 basefreq=60 r1=1.91 x1=0.1022 units=km normamps=90.3
New Linecode.108_2 nphases=2 basefreq=60 r1=1.91 x1=0.1022 units=km normamps=90.3
New Linecode.108_3 nphases=3 basefreq=60 r1=1.91 x1=0.1022 units=km normamps=90.3
New Linecode.108_4 nphases=4 basefreq=60 r1=1.91 x1=0.1022 units=km normamps=90.3
New Linecode.108_P_1 nphases=1 basefreq=60 r1=1.91 x1=0.1022 units=km normamps=90.3
New Linecode.108_P_2 nphases=2 basefreq=60 r1=1.91 x1=0.1022 units=km normamps=90.3
New Linecode.108_P_3 nphases=3 basefreq=60 r1=1.91 x1=0.1022 units=km normamps=90.3
New Linecode.108_P_4 nphases=4 basefreq=60 r1=1.91 x1=0.1022 units=km normamps=90.3
New Linecode.109_1 nphases=1 basefreq=60 r1=1.91 x1=0.1022 units=km normamps=61.95
New Linecode.109_2 nphases=2 basefreq=60 r1=1.91 x1=0.1022 units=km normamps=61.95
New Linecode.109_3 nphases=3 basefreq=60 r1=1.91 x1=0.1022 units=km normamps=61.95
New Linecode.109_4 nphases=4 basefreq=60 r1=1.91 x1=0.1022 units=km normamps=61.95
New Linecode.109_P_1 nphases=1 basefreq=60 r1=1.91 x1=0.1022 units=km normamps=61.95
New Linecode.109_P_2 nphases=2 basefreq=60 r1=1.91 x1=0.1022 units=km normamps=61.95
New Linecode.109_P_3 nphases=3 basefreq=60 r1=1.91 x1=0.1022 units=km normamps=61.95
New Linecode.109_P_4 nphases=4 basefreq=60 r1=1.91 x1=0.1022 units=km normamps=61.95
New Linecode.11_1 nphases=1 basefreq=60 r1=0.534 x1=0.4186 units=km normamps=286.65
New Linecode.11_2 nphases=2 basefreq=60 r1=0.534 x1=0.4186 units=km normamps=286.65
New Linecode.11_3 nphases=3 basefreq=60 r1=0.534 x1=0.4186 units=km normamps=286.65
New Linecode.11_4 nphases=4 basefreq=60 r1=0.534 x1=0.4186 units=km normamps=286.65
New Linecode.11_P_1 nphases=1 basefreq=60 r1=0.534 x1=0.4186 units=km normamps=286.65
New Linecode.11_P_2 nphases=2 basefreq=60 r1=0.534 x1=0.4186 units=km normamps=286.65
New Linecode.11_P_3 nphases=3 basefreq=60 r1=0.534 x1=0.4186 units=km normamps=286.65
New Linecode.11_P_4 nphases=4 basefreq=60 r1=0.534 x1=0.4186 units=km normamps=286.65
New Linecode.110_1 nphases=1 basefreq=60 r1=1.91 x1=0.1022 units=km normamps=76.65
New Linecode.110_2 nphases=2 basefreq=60 r1=1.91 x1=0.1022 units=km normamps=76.65
New Linecode.110_3 nphases=3 basefreq=60 r1=1.91 x1=0.1022 units=km normamps=76.65
New Linecode.110_4 nphases=4 basefreq=60 r1=1.91 x1=0.1022 units=km normamps=76.65
New Linecode.110_P_1 nphases=1 basefreq=60 r1=1.91 x1=0.1022 units=km normamps=76.65
New Linecode.110_P_2 nphases=2 basefreq=60 r1=1.91 x1=0.1022 units=km normamps=76.65
New Linecode.110_P_3 nphases=3 basefreq=60 r1=1.91 x1=0.1022 units=km normamps=76.65
New Linecode.110_P_4 nphases=4 basefreq=60 r1=1.91 x1=0.1022 units=km normamps=76.65
New Linecode.115_1 nphases=1 basefreq=60 r1=3.08 x1=0.1062 units=km normamps=57.75
New Linecode.115_2 nphases=2 basefreq=60 r1=3.08 x1=0.1062 units=km normamps=57.75
New Linecode.115_3 nphases=3 basefreq=60 r1=3.08 x1=0.1062 units=km normamps=57.75
New Linecode.115_4 nphases=4 basefreq=60 r1=3.08 x1=0.1062 units=km normamps=57.75
New Linecode.115_P_1 nphases=1 basefreq=60 r1=3.08 x1=0.1062 units=km normamps=57.75
New Linecode.115_P_2 nphases=2 basefreq=60 r1=3.08 x1=0.1062 units=km normamps=57.75
New Linecode.115_P_3 nphases=3 basefreq=60 r1=3.08 x1=0.1062 units=km normamps=57.75
New Linecode.115_P_4 nphases=4 basefreq=60 r1=3.08 x1=0.1062 units=km normamps=57.75
New Linecode.117_1 nphases=1 basefreq=60 r1=3.08 x1=0.1062 units=km normamps=68.25
New Linecode.117_2 nphases=2 basefreq=60 r1=3.08 x1=0.1062 units=km normamps=68.25
New Linecode.117_3 nphases=3 basefreq=60 r1=3.08 x1=0.1062 units=km normamps=68.25
New Linecode.117_4 nphases=4 basefreq=60 r1=3.08 x1=0.1062 units=km normamps=68.25
New Linecode.117_P_1 nphases=1 basefreq=60 r1=3.08 x1=0.1062 units=km normamps=68.25
New Linecode.117_P_2 nphases=2 basefreq=60 r1=3.08 x1=0.1062 units=km normamps=68.25
New Linecode.117_P_3 nphases=3 basefreq=60 r1=3.08 x1=0.1062 units=km normamps=68.25
New Linecode.117_P_4 nphases=4 basefreq=60 r1=3.08 x1=0.1062 units=km normamps=68.25
New Linecode.119_1 nphases=1 basefreq=60 r1=1.91 x1=0.1022 units=km normamps=90.3
New Linecode.119_2 nphases=2 basefreq=60 r1=1.91 x1=0.1022 units=km normamps=90.3
New Linecode.119_3 nphases=3 basefreq=60 r1=1.91 x1=0.1022 units=km normamps=90.3
New Linecode.119_4 nphases=4 basefreq=60 r1=1.91 x1=0.1022 units=km normamps=90.3
New Linecode.119_P_1 nphases=1 basefreq=60 r1=1.91 x1=0.1022 units=km normamps=90.3
New Linecode.119_P_2 nphases=2 basefreq=60 r1=1.91 x1=0.1022 units=km normamps=90.3
New Linecode.119_P_3 nphases=3 basefreq=60 r1=1.91 x1=0.1022 units=km normamps=90.3
New Linecode.119_P_4 nphases=4 basefreq=60 r1=1.91 x1=0.1022 units=km normamps=90.3
New Linecode.12_1 nphases=1 basefreq=60 r1=0.3364 x1=0.4012 units=km normamps=371.7
New Linecode.12_2 nphases=2 basefreq=60 r1=0.3364 x1=0.4012 units=km normamps=371.7
New Linecode.12_3 nphases=3 basefreq=60 r1=0.3364 x1=0.4012 units=km normamps=371.7
New Linecode.12_4 nphases=4 basefreq=60 r1=0.3364 x1=0.4012 units=km normamps=371.7
New Linecode.12_P_1 nphases=1 basefreq=60 r1=0.3364 x1=0.4012 units=km normamps=371.7
New Linecode.12_P_2 nphases=2 basefreq=60 r1=0.3364 x1=0.4012 units=km normamps=371.7
New Linecode.12_P_3 nphases=3 basefreq=60 r1=0.3364 x1=0.4012 units=km normamps=371.7
New Linecode.12_P_4 nphases=4 basefreq=60 r1=0.3364 x1=0.4012 units=km normamps=371.7
New Linecode.122_1 nphases=1 basefreq=60 r1=1.2 x1=0.1004 units=km normamps=84
New Linecode.122_2 nphases=2 basefreq=60 r1=1.2 x1=0.1004 units=km normamps=84
New Linecode.122_3 nphases=3 basefreq=60 r1=1.2 x1=0.1004 units=km normamps=84
New Linecode.122_4 nphases=4 basefreq=60 r1=1.2 x1=0.1004 units=km normamps=84
New Linecode.122_P_1 nphases=1 basefreq=60 r1=1.2 x1=0.1004 units=km normamps=84
New Linecode.122_P_2 nphases=2 basefreq=60 r1=1.2 x1=0.1004 units=km normamps=84
New Linecode.122_P_3 nphases=3 basefreq=60 r1=1.2 x1=0.1004 units=km normamps=84
New Linecode.122_P_4 nphases=4 basefreq=60 r1=1.2 x1=0.1004 units=km normamps=84
New Linecode.123_1 nphases=1 basefreq=60 r1=0.0022 x1=0.0001 units=km normamps=84
New Linecode.123_2 nphases=2 basefreq=60 r1=0.0022 x1=0.0001 units=km normamps=84
New Linecode.123_3 nphases=3 basefreq=60 r1=0.0022 x1=0.0001 units=km normamps=84
New Linecode.123_4 nphases=4 basefreq=60 r1=0.0022 x1=0.0001 units=km normamps=84
New Linecode.123_P_1 nphases=1 basefreq=60 r1=0.0022 x1=0.0001 units=km normamps=84
New Linecode.123_P_2 nphases=2 basefreq=60 r1=0.0022 x1=0.0001 units=km normamps=84
New Linecode.123_P_3 nphases=3 basefreq=60 r1=0.0022 x1=0.0001 units=km normamps=84
New Linecode.123_P_4 nphases=4 basefreq=60 r1=0.0022 x1=0.0001 units=km normamps=84
New Linecode.124_1 nphases=1 basefreq=60 r1=0.0013 x1=0.0001 units=km normamps=120
New Linecode.124_2 nphases=2 basefreq=60 r1=0.0013 x1=0.0001 units=km normamps=120
New Linecode.124_3 nphases=3 basefreq=60 r1=0.0013 x1=0.0001 units=km normamps=120
New Linecode.124_4 nphases=4 basefreq=60 r1=0.0013 x1=0.0001 units=km normamps=120
New Linecode.124_P_1 nphases=1 basefreq=60 r1=0.0013 x1=0.0001 units=km normamps=120
New Linecode.124_P_2 nphases=2 basefreq=60 r1=0.0013 x1=0.0001 units=km normamps=120
New Linecode.124_P_3 nphases=3 basefreq=60 r1=0.0013 x1=0.0001 units=km normamps=120
New Linecode.124_P_4 nphases=4 basefreq=60 r1=0.0013 x1=0.0001 units=km normamps=120
New Linecode.125_1 nphases=1 basefreq=60 r1=0 x1=0 units=km normamps=0
New Linecode.125_2 nphases=2 basefreq=60 r1=0 x1=0 units=km normamps=0
New Linecode.125_3 nphases=3 basefreq=60 r1=0 x1=0 units=km normamps=0
New Linecode.125_4 nphases=4 basefreq=60 r1=0 x1=0 units=km normamps=0
New Linecode.125_P_1 nphases=1 basefreq=60 r1=0 x1=0 units=km normamps=0
New Linecode.125_P_2 nphases=2 basefreq=60 r1=0 x1=0 units=km normamps=0
New Linecode.125_P_3 nphases=3 basefreq=60 r1=0 x1=0 units=km normamps=0
New Linecode.125_P_4 nphases=4 basefreq=60 r1=0 x1=0 units=km normamps=0
New Linecode.127_1 nphases=1 basefreq=60 r1=0.0006 x1=0.0001 units=km normamps=195
New Linecode.127_2 nphases=2 basefreq=60 r1=0.0006 x1=0.0001 units=km normamps=195
New Linecode.127_3 nphases=3 basefreq=60 r1=0.0006 x1=0.0001 units=km normamps=195
New Linecode.127_4 nphases=4 basefreq=60 r1=0.0006 x1=0.0001 units=km normamps=195
New Linecode.127_P_1 nphases=1 basefreq=60 r1=0.0006 x1=0.0001 units=km normamps=195
New Linecode.127_P_2 nphases=2 basefreq=60 r1=0.0006 x1=0.0001 units=km normamps=195
New Linecode.127_P_3 nphases=3 basefreq=60 r1=0.0006 x1=0.0001 units=km normamps=195
New Linecode.127_P_4 nphases=4 basefreq=60 r1=0.0006 x1=0.0001 units=km normamps=195
New Linecode.129_1 nphases=1 basefreq=60 r1=0.0004 x1=0.0001 units=km normamps=198
New Linecode.129_2 nphases=2 basefreq=60 r1=0.0004 x1=0.0001 units=km normamps=198
New Linecode.129_3 nphases=3 basefreq=60 r1=0.0004 x1=0.0001 units=km normamps=198
New Linecode.129_4 nphases=4 basefreq=60 r1=0.0004 x1=0.0001 units=km normamps=198
New Linecode.129_P_1 nphases=1 basefreq=60 r1=0.0004 x1=0.0001 units=km normamps=198
New Linecode.129_P_2 nphases=2 basefreq=60 r1=0.0004 x1=0.0001 units=km normamps=198
New Linecode.129_P_3 nphases=3 basefreq=60 r1=0.0004 x1=0.0001 units=km normamps=198
New Linecode.129_P_4 nphases=4 basefreq=60 r1=0.0004 x1=0.0001 units=km normamps=198
New Linecode.13_1 nphases=1 basefreq=60 r1=0.85 x1=0.4362 units=km normamps=216.3
New Linecode.13_2 nphases=2 basefreq=60 r1=0.85 x1=0.4362 units=km normamps=216.3
New Linecode.13_3 nphases=3 basefreq=60 r1=0.85 x1=0.4362 units=km normamps=216.3
New Linecode.13_4 nphases=4 basefreq=60 r1=0.85 x1=0.4362 units=km normamps=216.3
New Linecode.13_P_1 nphases=1 basefreq=60 r1=0.85 x1=0.4362 units=km normamps=216.3
New Linecode.13_P_2 nphases=2 basefreq=60 r1=0.85 x1=0.4362 units=km normamps=216.3
New Linecode.13_P_3 nphases=3 basefreq=60 r1=0.85 x1=0.4362 units=km normamps=216.3
New Linecode.13_P_4 nphases=4 basefreq=60 r1=0.85 x1=0.4362 units=km normamps=216.3
New Linecode.130_1 nphases=1 basefreq=60 r1=0.0003 x1=0.0001 units=km normamps=261
New Linecode.130_2 nphases=2 basefreq=60 r1=0.0003 x1=0.0001 units=km normamps=261
New Linecode.130_3 nphases=3 basefreq=60 r1=0.0003 x1=0.0001 units=km normamps=261
New Linecode.130_4 nphases=4 basefreq=60 r1=0.0003 x1=0.0001 units=km normamps=261
New Linecode.130_P_1 nphases=1 basefreq=60 r1=0.0003 x1=0.0001 units=km normamps=261
New Linecode.130_P_2 nphases=2 basefreq=60 r1=0.0003 x1=0.0001 units=km normamps=261
New Linecode.130_P_3 nphases=3 basefreq=60 r1=0.0003 x1=0.0001 units=km normamps=261
New Linecode.130_P_4 nphases=4 basefreq=60 r1=0.0003 x1=0.0001 units=km normamps=261
New Linecode.131_1 nphases=1 basefreq=60 r1=0.0002 x1=0.0001 units=km normamps=305
New Linecode.131_2 nphases=2 basefreq=60 r1=0.0002 x1=0.0001 units=km normamps=305
New Linecode.131_3 nphases=3 basefreq=60 r1=0.0002 x1=0.0001 units=km normamps=305
New Linecode.131_4 nphases=4 basefreq=60 r1=0.0002 x1=0.0001 units=km normamps=305
New Linecode.131_P_1 nphases=1 basefreq=60 r1=0.0002 x1=0.0001 units=km normamps=305
New Linecode.131_P_2 nphases=2 basefreq=60 r1=0.0002 x1=0.0001 units=km normamps=305
New Linecode.131_P_3 nphases=3 basefreq=60 r1=0.0002 x1=0.0001 units=km normamps=305
New Linecode.131_P_4 nphases=4 basefreq=60 r1=0.0002 x1=0.0001 units=km normamps=305
New Linecode.133_1 nphases=1 basefreq=60 r1=0.0001 x1=0.0001 units=km normamps=352
New Linecode.133_2 nphases=2 basefreq=60 r1=0.0001 x1=0.0001 units=km normamps=352
New Linecode.133_3 nphases=3 basefreq=60 r1=0.0001 x1=0.0001 units=km normamps=352
New Linecode.133_4 nphases=4 basefreq=60 r1=0.0001 x1=0.0001 units=km normamps=352
New Linecode.133_P_1 nphases=1 basefreq=60 r1=0.0001 x1=0.0001 units=km normamps=352
New Linecode.133_P_2 nphases=2 basefreq=60 r1=0.0001 x1=0.0001 units=km normamps=352
New Linecode.133_P_3 nphases=3 basefreq=60 r1=0.0001 x1=0.0001 units=km normamps=352
New Linecode.133_P_4 nphases=4 basefreq=60 r1=0.0001 x1=0.0001 units=km normamps=352
...
